#======================================================================

# CRYSTAL DATA

#----------------------------------------------------------------------

data_VESTA_phase_1


_chemical_name_common                  'MnO_RT_SPG225_PRB_V1_P236_1970'
_cell_length_a                         4.44570
_cell_length_b                         4.44570
_cell_length_c                         4.44570
_cell_angle_alpha                      90
_cell_angle_beta                       90
_cell_angle_gamma                      90
_space_group_name_H-M_alt              'F 1'
_space_group_IT_number                 1

loop_
_space_group_symop_operation_xyz
   'x, y, z'
   'x, y+1/2, z+1/2'
   'x+1/2, y, z+1/2'
   'x+1/2, y+1/2, z'

loop_
   _atom_site_label
   _atom_site_occupancy
   _atom_site_fract_x
   _atom_site_fract_y
   _atom_site_fract_z
   _atom_site_adp_type
   _atom_site_B_iso_or_equiv
   _atom_site_type_symbol
   Mn1        1.0     0.000000      0.000000      0.000000     Biso  1.000000 Mn
   O1         1.0     0.500000      0.500000      0.500000     Biso  1.000000 O
